{"metadata":{".zgroup":{"zarr_format":2},"time\/.zarray":{"chunks":[2],"compressor":null,"dtype":"<i4","fill_value":null,"filters":null,"order":"C","shape":[2],"zarr_format":2},"time\/.zattrs":{"_ARRAY_DIMENSIONS":["time"],"axis":"T","calendar":"proleptic_gregorian","long_name":"hours since 2022-12-31 12:00:00","standard_name":"time","units":"hours since 2022-12-31T12:00:00"},".zattrs":{"CEN_LAT":-34.9999885559082,"CEN_LON":-65.0,"Conventions":"CF-1.8","DX":4000.0,"DY":4000.0,"MAP_PROJ":1,"MAP_PROJ_CHAR":"Lambert Conformal","STAND_LON":-65.0,"START_DATE":"2022-12-31_12:00:00","TRUELAT1":-35.0,"TRUELAT2":-35.0,"end_lat":-11.645957946777344,"end_lon":-47.96868896484375,"institution":"Servicio Meteorologico Nacional","source":" OUTPUT FROM WRF V4.0 MODEL","start_lat":-54.386837005615234,"start_lon":-94.330810546875,"title":"Python PostProcessing for SMN WRF-ARW Deterministic SFC"},"HR2\/.zarray":{"chunks":[1,1249,999],"compressor":{"id":"zlib","level":4},"dtype":"<f4","fill_value":1.0000000200408773e+20,"filters":[{"elementsize":4,"id":"shuffle"}],"order":"C","shape":[2,1249,999],"zarr_format":2},"HR2\/.zattrs":{"_ARRAY_DIMENSIONS":["time","y","x"],"coordinates":"lat lon","grid_mapping":"Lambert_Conformal","long_name":"Relative humidity","standard_name":"relative_humidity","units":"percent"},"Lambert_Conformal\/.zarray":{"chunks":[1],"compressor":null,"dtype":"<f4","fill_value":9.969209968386869e+36,"filters":null,"order":"C","shape":[2],"zarr_format":2},"Lambert_Conformal\/.zattrs":{"_ARRAY_DIMENSIONS":["time"],"grid_mapping_name":"lambert_conformal_conic","latitude_of_projection_origin":-34.9999885559082,"longitude_of_central_meridian":-65.0,"standard_parallel":[-35.0,-35.0]},"PP\/.zarray":{"chunks":[1,1249,999],"compressor":{"id":"zlib","level":4},"dtype":"<f4","fill_value":1.0000000200408773e+20,"filters":[{"elementsize":4,"id":"shuffle"}],"order":"C","shape":[2,1249,999],"zarr_format":2},"PP\/.zattrs":{"_ARRAY_DIMENSIONS":["time","y","x"],"coordinates":"lat lon","grid_mapping":"Lambert_Conformal","long_name":"Accumulated total precipitation","standard_name":"precipitation_amount","units":"millimeter"},"T2\/.zarray":{"chunks":[1,1249,999],"compressor":{"id":"zlib","level":4},"dtype":"<f4","fill_value":1.0000000200408773e+20,"filters":[{"elementsize":4,"id":"shuffle"}],"order":"C","shape":[2,1249,999],"zarr_format":2},"T2\/.zattrs":{"_ARRAY_DIMENSIONS":["time","y","x"],"coordinates":"lat lon","description":"Temperatura horaria calibrada a partir de la interpolacion de los coeficientes de la metodologia RAFK.","grid_mapping":"Lambert_Conformal","long_name":"Calibrated 2-m Temperature","standard_name":"air_temperature","units":"degree_Celsius"},"dirViento10\/.zarray":{"chunks":[1,1249,999],"compressor":{"id":"zlib","level":4},"dtype":"<f4","fill_value":1.0000000200408773e+20,"filters":[{"elementsize":4,"id":"shuffle"}],"order":"C","shape":[2,1249,999],"zarr_format":2},"dirViento10\/.zattrs":{"_ARRAY_DIMENSIONS":["time","y","x"],"coordinates":"lat lon","grid_mapping":"Lambert_Conformal","long_name":"Wind Direction at 10m","standard_name":"wind_from_direction","units":"degree"},"lat\/.zarray":{"chunks":[1,1249,999],"compressor":{"id":"zlib","level":4},"dtype":"<f4","fill_value":null,"filters":[{"elementsize":4,"id":"shuffle"}],"order":"C","shape":[2,1249,999],"zarr_format":2},"lat\/.zattrs":{"_ARRAY_DIMENSIONS":["time","y","x"],"long_name":"Latitude","standard_name":"latitude","units":"degrees_north"},"lon\/.zarray":{"chunks":[1,1249,999],"compressor":{"id":"zlib","level":4},"dtype":"<f4","fill_value":null,"filters":[{"elementsize":4,"id":"shuffle"}],"order":"C","shape":[2,1249,999],"zarr_format":2},"lon\/.zattrs":{"_ARRAY_DIMENSIONS":["time","y","x"],"long_name":"Longitude","standard_name":"longitude","units":"degrees_east"},"magViento10\/.zarray":{"chunks":[1,1249,999],"compressor":{"id":"zlib","level":4},"dtype":"<f4","fill_value":1.0000000200408773e+20,"filters":[{"elementsize":4,"id":"shuffle"}],"order":"C","shape":[2,1249,999],"zarr_format":2},"magViento10\/.zattrs":{"_ARRAY_DIMENSIONS":["time","y","x"],"coordinates":"lat lon","description":"Intensidad del viento calibrada a partir de la interpolacion de los coeficientes de la metodologia RAFK.","grid_mapping":"Lambert_Conformal","long_name":"Calibrated Wind Speed at 10m","standard_name":"wind_speed","units":"meter \/ second"},"x\/.zarray":{"chunks":[999],"compressor":{"id":"zlib","level":4},"dtype":"<f4","fill_value":null,"filters":[{"elementsize":4,"id":"shuffle"}],"order":"C","shape":[999],"zarr_format":2},"x\/.zattrs":{"_ARRAY_DIMENSIONS":["x"],"axis":"X","long_name":"x-coordinate in projected coordinate system","standard_name":"projection_x_coordinate","units":"m"},"y\/.zarray":{"chunks":[1249],"compressor":{"id":"zlib","level":4},"dtype":"<f4","fill_value":null,"filters":[{"elementsize":4,"id":"shuffle"}],"order":"C","shape":[1249],"zarr_format":2},"y\/.zattrs":{"_ARRAY_DIMENSIONS":["y"],"axis":"Y","long_name":"y-coordinate in projected coordinate system","standard_name":"projection_y_coordinate","units":"m"}},"record_size":1000}
